FoamFile
{
    format          ascii;
    class           polyBoundaryMesh;
    location        "constant/polyMesh";
    object          boundary;
}


// * * * * * * * * * * * * * * * * * * * * * * * * * * * * * * * * * * * * * //
6
(
down
{
    type            symmetryPlane;
    inGroups        List<word> 1
(
symmetryPlane
)
;
    nFaces          60;
    startFace       3890;
}
right
{
    type            patch;
    nFaces          30;
    startFace       3950;
}
up
{
    type            symmetryPlane;
    inGroups        List<word> 1
(
symmetryPlane
)
;
    nFaces          60;
    startFace       3980;
}
left
{
    type            patch;
    nFaces          30;
    startFace       4040;
}
cylinder
{
    type            symmetry;
    inGroups        List<word> 1
(
symmetry
)
;
    nFaces          40;
    startFace       4070;
}
defaultFaces
{
    type            empty;
    inGroups        List<word> 1
(
empty
)
;
    nFaces          4000;
    startFace       4110;
}
)

